Version 4
SHEET 1 880 680
WIRE 0 192 0 112
WIRE 560 192 560 112
WIRE 560 192 0 192
FLAG 560 112 output
IOPIN 560 112 Out
FLAG 0 112 input
IOPIN 0 112 In
SYMBOL 74HCT\\74hct04 48 48 R0
SYMATTR InstName U1
SYMBOL 74HCT\\74hct04 160 48 R0
SYMATTR InstName U2
SYMBOL 74HCT\\74hct04 272 48 R0
SYMATTR InstName U3
SYMBOL 74HCT\\74hct04 384 48 R0
SYMATTR InstName U4
SYMBOL 74HCT\\74hct04 496 48 R0
SYMATTR InstName U5
TEXT -72 200 Left 2 !.tran 0 10u 0 1u
TEXT -64 232 Left 2 !.lib 74HCT.lib
