Version 4
SHEET 1 880 680
WIRE 112 32 48 32
WIRE 272 32 192 32
WIRE 48 176 48 32
WIRE 96 176 48 176
WIRE 272 176 272 32
WIRE 272 176 208 176
WIRE 352 176 272 176
WIRE 48 224 48 176
WIRE 256 288 48 288
FLAG 256 288 0
FLAG 352 176 output
IOPIN 352 176 Out
SYMBOL 74HCT\\74hct14 144 128 R0
SYMATTR InstName U1
SYMBOL res 208 16 R90
WINDOW 0 0 56 VBottom 2
WINDOW 3 32 56 VTop 2
SYMATTR InstName R1
SYMATTR Value 2200
SYMBOL cap 32 224 R0
SYMATTR InstName C1
SYMATTR Value 10n
TEXT 32 312 Left 2 !.tran 0 200u 0 1u
TEXT 32 360 Left 2 !.lib 74HCT.lib
