Version 4
SHEET 1 880 680
WIRE 160 0 96 0
WIRE 320 0 240 0
WIRE 96 144 96 0
WIRE 144 144 96 144
WIRE 320 144 320 0
WIRE 320 144 256 144
WIRE 400 144 320 144
WIRE 96 192 96 144
WIRE 304 256 96 256
FLAG 304 256 0
FLAG 400 144 output
IOPIN 400 144 Out
SYMBOL 74HCT\\74hct14 192 96 R0
SYMATTR InstName U1
SYMBOL res 256 -16 R90
WINDOW 0 0 56 VBottom 2
WINDOW 3 32 56 VTop 2
SYMATTR InstName R1
SYMATTR Value 470
SYMBOL cap 80 192 R0
SYMATTR InstName C1
SYMATTR Value 10n
TEXT 78 280 Left 2 !.tran 0 200u 0 1u
TEXT 80 328 Left 2 !.lib 74HCT.lib
