Version 4
SHEET 1 880 680
WIRE 128 16 64 16
WIRE 288 16 208 16
WIRE 64 160 64 16
WIRE 112 160 64 160
WIRE 288 160 288 16
WIRE 288 160 224 160
WIRE 368 160 288 160
WIRE 64 208 64 160
WIRE 272 272 64 272
FLAG 272 272 0
FLAG 368 160 output
IOPIN 368 160 Out
SYMBOL 74HCT\\74hct14 160 112 R0
SYMATTR InstName U1
SYMBOL res 224 0 R90
WINDOW 0 0 56 VBottom 2
WINDOW 3 32 56 VTop 2
SYMATTR InstName R1
SYMATTR Value 1000
SYMBOL cap 48 208 R0
SYMATTR InstName C1
SYMATTR Value 10n
TEXT 48 296 Left 2 !.tran 0 200u 0 1u
TEXT 48 344 Left 2 !.lib 74HCT.lib
